powerfactory/powerfactory-converter/src/test/resources/MediumVoltageLoad.xiidm
<?xml version="1.0" encoding="UTF-8"?>
<iidm:network xmlns:iidm="http://www.powsybl.org/schema/iidm/1_18" id="MediumVoltageLoad" caseDate="2021-01-01T10:00:00.000+02:00" forecastDistance="0" sourceFormat="POWER-FACTORY" minimumValidationLevel="STEADY_STATE_HYPOTHESIS">
    <iidm:substation id="S10">
        <iidm:voltageLevel id="VL10" nominalV="400.0" topologyKind="NODE_BREAKER">
            <iidm:nodeBreakerTopology>
                <iidm:busbarSection id="VL10_1 Bus 1-Slack" node="0"/>
                <iidm:switch id="VL10_Switch" kind="BREAKER" open="false" node1="0" node2="1"/>
                <iidm:switch id="VL10_Switch#0" kind="BREAKER" open="false" node1="0" node2="2"/>
                <iidm:bus v="423.9999694824219" angle="0.0" nodes="0,1,2"/>
            </iidm:nodeBreakerTopology>
            <iidm:generator id="sym_1_1" energySource="OTHER" minP="0.0" maxP="50.470001220703125" targetP="50.470001220703125" localTargetV="423.9999771118164" localTargetQ="0.0" node="2">
                <iidm:minMaxReactiveLimits minQ="0.0" maxQ="0.0"/>
                <iidm:voltageRegulation mode="VOLTAGE" regulating="true"/>
            </iidm:generator>
        </iidm:voltageLevel>
    </iidm:substation>
    <iidm:substation id="S11">
        <iidm:voltageLevel id="VL11" nominalV="400.0" topologyKind="NODE_BREAKER">
            <iidm:nodeBreakerTopology>
                <iidm:busbarSection id="VL11_2 Bus 2" node="0"/>
                <iidm:switch id="VL11_Switch" kind="BREAKER" open="false" node1="0" node2="1"/>
                <iidm:switch id="VL11_Switch#0" kind="BREAKER" open="false" node1="0" node2="2"/>
                <iidm:bus v="418.62994384765625" angle="-1.461245059967041" nodes="0,1,2"/>
            </iidm:nodeBreakerTopology>
        </iidm:voltageLevel>
        <iidm:voltageLevel id="VL12" nominalV="20.0" topologyKind="NODE_BREAKER">
            <iidm:nodeBreakerTopology>
                <iidm:busbarSection id="VL12_3 Bus 2-Load" node="0"/>
                <iidm:switch id="VL12_Switch" kind="BREAKER" open="false" node1="0" node2="1"/>
                <iidm:switch id="VL12_Switch#0" kind="BREAKER" open="false" node1="0" node2="2"/>
                <iidm:internalConnection node1="0" node2="3"/>
                <iidm:internalConnection node1="0" node2="4"/>
                <iidm:internalConnection node1="0" node2="5"/>
                <iidm:internalConnection node1="0" node2="6"/>
                <iidm:internalConnection node1="0" node2="7"/>
                <iidm:internalConnection node1="5" node2="8"/>
                <iidm:bus v="20.805301666259766" angle="-2.0938339233398438" nodes="0,1,2,3,4,5,6,7,8"/>
            </iidm:nodeBreakerTopology>
            <iidm:generator id="lod_33_1-G" energySource="OTHER" minP="0.019999999552965164" maxP="0.019999999552965164" targetP="0.019999999552965164" localTargetQ="0.0" node="8">
                <iidm:minMaxReactiveLimits minQ="0.0" maxQ="0.0"/>
            </iidm:generator>
            <iidm:load id="lod_3_1" loadType="UNDEFINED" p0="10.0" q0="5.0" node="1"/>
            <iidm:load id="lod_31_1" loadType="UNDEFINED" p0="10.0" q0="11.180339887498949" node="3"/>
            <iidm:load id="lod_32_1" loadType="UNDEFINED" p0="14.142135623730951" q0="5.0" node="4"/>
            <iidm:load id="lod_33_1" loadType="UNDEFINED" p0="10.0" q0="2.0305856083402913" node="5"/>
            <iidm:load id="lod_34_1" loadType="UNDEFINED" p0="24.6234385758637" q0="5.0" node="6"/>
            <iidm:load id="lod_35_1" loadType="UNDEFINED" p0="14.700000286102295" q0="2.984960902355749" node="7"/>
        </iidm:voltageLevel>
        <iidm:twoWindingsTransformer id="trf_2_3_1" r="0.0031199999227605408" x="0.09771995949237713" ratedU1="400.0" ratedU2="20.0" ratedS="29.760000228881836" voltageLevelId1="VL11" node1="2" voltageLevelId2="VL12" node2="2">
            <iidm:ratioTapChanger tapPosition="2" loadTapChangingCapabilities="false">
                <iidm:step rho="1.1111111111111112"/>
                <iidm:step rho="1.0526315789473684"/>
                <iidm:step rho="1.0"/>
                <iidm:step rho="0.9523809523809523"/>
                <iidm:step rho="0.9090909090909091"/>
            </iidm:ratioTapChanger>
        </iidm:twoWindingsTransformer>
    </iidm:substation>
    <iidm:line id="lne_1_2_1" r="31.007963180541992" x="94.67198181152344" b1="1.0815001583099366E-4" b2="1.0815001583099366E-4" voltageLevelId1="VL10" node1="1" voltageLevelId2="VL11" node2="1"/>
</iidm:network>
